 xtb: 6.5.1 (b24c23e)
          11032212463D

  8  7  0     0  0            999 V2000
    0.7697   -0.0374    0.0909 C   0  0  0  0  0  0  0  0  0  0  0  0
   -0.7057    0.0366   -0.0980 N   0  0  0  0  0  0  0  0  0  0  0  0
   -0.9524    0.0355   -1.0959 H   0  0  0  0  0  0  0  0  0  0  0  0
   -1.1625   -0.7712    0.3463 H   0  0  0  0  0  0  0  0  0  0  0  0
   -1.0881    0.8822    0.3447 H   0  0  0  0  0  0  0  0  0  0  0  0
    1.0474    0.4235    1.0369 H   0  0  0  0  0  0  0  0  0  0  0  0
    1.0965   -1.0741    0.1228 H   0  0  0  0  0  0  0  0  0  0  0  0
    1.2861    0.4826   -0.7115 H   0  0  0  0  0  0  0  0  0  0  0  0
  1  2  1  0  0  0  0
  2  3  1  0  0  0  0
  2  4  1  0  0  0  0
  2  5  1  0  0  0  0
  1  6  1  0  0  0  0
  1  7  1  0  0  0  0
  1  8  1  0  0  0  0
M  CHG  1   1   1
M  END
