
 OpenBabel11032212443D

  8  7  0  0  0  0  0  0  0  0999 V2000
    0.7151   -0.0590    0.0429 C   0  0  0  0  0  0  0  0  0  0  0  0
   -0.7219    0.0277   -0.0719 N   0  3  0  0  0  0  0  0  0  0  0  0
    1.2071   -0.4365   -0.8711 H   0  0  0  0  0  0  0  0  0  0  0  0
    1.0961    0.9513    0.2305 H   0  0  0  0  0  0  0  0  0  0  0  0
    0.9815   -0.7449    0.8877 H   0  0  0  0  0  0  0  0  0  0  0  0
   -1.0458    0.9587   -0.4413 H   0  0  0  0  0  0  0  0  0  0  0  0
   -1.0977   -0.0097    0.9152 H   0  0  0  0  0  0  0  0  0  0  0  0
   -1.1344   -0.6877   -0.6920 H   0  0  0  0  0  0  0  0  0  0  0  0
  1  2  1  0  0  0  0
  1  3  1  0  0  0  0
  1  4  1  0  0  0  0
  1  5  1  0  0  0  0
  2  6  1  0  0  0  0
  2  7  1  0  0  0  0
  2  8  1  0  0  0  0
M  CHG  1   2   1
M  END
$$$$
