CH6N
     RDKit          3D

  8  7  0  0  0  0  0  0  0  0999 V2000
    0.0047    0.6496   -0.3874 C   0  0  1  0  0  0  0  0  0  0  0  0
    0.0013   -0.6262    0.3682 N   0  0  1  0  0  4  0  0  0  0  0  0
   -0.1453   -0.4085    1.3988 H   0  0  0  0  0  0  0  0  0  0  0  0
   -0.7893   -1.2342    0.0021 H   0  0  0  0  0  0  0  0  0  0  0  0
    0.9382   -1.1079    0.2220 H   0  0  0  0  0  0  0  0  0  0  0  0
   -1.0355    1.0197   -0.3212 H   0  0  0  0  0  0  0  0  0  0  0  0
    0.7312    1.3038    0.1366 H   0  0  0  0  0  0  0  0  0  0  0  0
    0.2948    0.4038   -1.4191 H   0  0  0  0  0  0  0  0  0  0  0  0
  1  2  1  0
  1  6  1  6
  1  7  1  0
  1  8  1  0
  2  3  1  1
  2  4  1  0
  2  5  1  0
M  CHG  1   2   1
M  END
