9

S -0.47484325 -0.25546532 0.16500311
O -0.99937886 -1.36837216 -0.65341521
O -0.98519717 -0.18682875 1.54981325
O 1.13236453 -0.74120655 0.41212363
C 2.05627648 -0.29096039 -0.57429381
O -0.37163329 1.04777827 -0.52820048
H 2.07636749 0.79753537 -0.58931914
H 3.05099785 -0.67406317 -0.34252672
H 1.74072922 -0.65320830 -1.55211661
