9

S -0.35994659 0.03581334 0.37230972
O -0.94671171 -1.06219255 -0.42527379
O 0.30003550 -0.37793238 1.62904073
O 0.94959377 0.52782107 -0.58629640
C 1.92214697 -0.48586054 -0.83744908
O -1.16810731 1.27017804 0.45092227
H 2.88260240 -0.16947488 -0.43037545
H 1.63392035 -1.42695551 -0.37234754
H 2.01215163 -0.63618959 -1.91346346
