9

S -0.48797598 0.09072666 -0.15535182
O -1.27027685 0.86965670 -1.13724399
O -0.57603376 -1.37772708 -0.31541078
O 1.10510555 0.47557340 -0.59618735
C 2.06594571 -0.54417601 -0.33837187
O -0.53751399 0.57605489 1.23946639
H 1.81147690 -1.43881928 -0.90412746
H 3.05667542 -0.19314073 -0.63023512
H 2.05828200 -0.78294255 0.72452801
