9

S -0.47484653 -0.25434285 0.16433785
O -0.99958950 -1.36852744 -0.65228714
O -0.98615439 -0.18981097 1.54901614
O 1.13234495 -0.73939312 0.41257454
C 2.05644518 -0.29120042 -0.57478690
O -0.37175358 1.05071318 -0.52542653
H 2.07636174 0.79723116 -0.59203245
H 3.05118979 -0.67373009 -0.34244610
H 1.74168634 -0.65573044 -1.55188342
