9

S -0.44515328 0.02229839 0.17768737
O -0.88263561 -0.37817108 -1.17670153
O -0.27523566 -1.08562278 1.14194375
O 1.15159717 0.52844779 -0.08631879
C 2.01750764 -0.47321515 -0.61808269
O -1.07288411 1.24680670 0.71558112
H 2.42099882 -0.12721616 -1.56991558
H 2.83119964 -0.65238802 0.08475815
H 1.48028940 -1.40573170 -0.78188681
