9

S -0.42495648 0.01205369 0.22410731
O -0.92789401 -0.59430292 -1.02761401
O -0.11976780 -0.94204966 1.31157564
O 1.11605818 0.56397882 -0.21916704
C 1.99940380 -0.45969839 -0.67284581
O -1.09332506 1.26206162 0.64070961
H 2.70942473 -0.03521788 -1.38379030
H 2.52859602 -0.88074949 0.18133157
H 1.43814460 -1.25086677 -1.16724198
