9

S -0.49356027 0.05010802 -0.22408623
O -1.29947963 1.06064363 -0.93985430
O -0.73200286 -1.35365028 -0.62358658
O 1.06359794 0.34786894 -0.82604719
C 2.06394703 -0.51180316 -0.28571189
O -0.32895160 0.27908396 1.22763716
H 1.82777616 -1.54480550 -0.53664904
H 3.03636241 -0.24634594 -0.70253149
H 2.08799782 -0.40589467 0.79789557
