9

S -0.44544190 0.02272271 0.17752590
O -0.88299227 -0.37752929 -1.17695170
O -0.27578426 -1.08606899 1.14076532
O 1.15155275 0.52867052 -0.08623682
C 2.01734230 -0.47329791 -0.61805134
O -1.07363994 1.24665266 0.71621757
H 2.42151117 -0.12827462 -1.57000502
H 2.83223624 -0.65113348 0.08374701
H 1.48089992 -1.40653360 -0.77994592
