9

S -0.38217908 0.01818082 0.32234331
O -0.95392850 -0.93042995 -0.65689569
O 0.15852644 -0.59142178 1.55666313
O 1.01508209 0.56240252 -0.46952985
C 1.95123047 -0.46591165 -0.78607087
O -1.13863834 1.27326306 0.51061744
H 2.96090411 -0.05429218 -0.76188940
H 1.88918049 -1.27000510 -0.05453732
H 1.72550631 -0.86657775 -1.77363474
