9

S -0.45190672 0.03843404 0.12860633
O -0.80311196 -0.14797795 -1.29525433
O -0.41592859 -1.19646645 0.94181546
O 1.18296851 0.48096066 0.04592895
C 2.02600566 -0.49552496 -0.56200144
O -1.05709739 1.21563615 0.78486474
H 2.08654111 -0.29685193 -1.63161019
H 3.02426902 -0.42528948 -0.12791097
H 1.63394536 -1.49771108 -0.39737357
