9

S -0.51487990 -0.01498902 -0.27367545
O -1.18686284 1.21422781 -0.74299814
O -0.99267711 -1.27975696 -0.86999506
O 1.02156222 0.13872822 -0.97806696
C 2.08532108 -0.46378154 -0.24648365
O -0.25582030 -0.06249742 1.18250197
H 1.90053299 -1.53401784 -0.16126302
H 3.02628461 -0.29551917 -0.77199397
H 2.14222525 -0.02719008 0.74904128
