9

S -0.45844318 -0.12061300 0.19788597
O -0.64681490 -0.89893975 -1.04649869
O -1.06672741 -0.71291367 1.40703978
O 1.19867030 -0.24996705 0.54065554
C 2.04209297 -0.39497095 -0.59826199
O -0.61654008 1.34119522 0.05105596
H 1.93540288 0.48129531 -1.23665300
H 3.07887718 -0.48456969 -0.27115739
H 1.75916725 -1.28530843 -1.15699817
