9

S -0.45993244 -0.04696242 0.17798382
O -0.60002268 -0.58417608 -1.19390614
O -0.92340395 -0.95065236 1.25100057
O 1.21126488 0.00661268 0.47453811
C 2.04854616 -0.44459060 -0.58564825
O -0.83527478 1.37368287 0.33204832
H 1.89134971 0.18069203 -1.46348625
H 3.09222370 -0.38297714 -0.27454050
H 1.80093439 -1.47642097 -0.83092368
