9

S -0.45173825 0.16243253 -0.03533596
O -0.35693264 0.75984031 -1.38434144
O -0.83350648 -1.26593885 0.00182856
O 1.16858790 0.13142407 0.46401581
C 2.02822446 -0.63902573 -0.37344614
O -1.07615447 1.01550777 0.99686696
H 1.47424643 -1.44692426 -0.84850989
H 2.42735407 0.00706665 -1.15477152
H 2.84560297 -1.04917649 0.22075763
