9

S -0.46355479 0.12750330 0.00010422
O -0.50392551 0.53783202 -1.41983106
O -0.75226966 -1.30001356 0.25490712
O 1.18765847 0.24066766 0.36910308
C 2.03690019 -0.59293516 -0.41842625
O -1.06095542 1.08114402 0.95744393
H 1.46112236 -1.15791904 -1.14950994
H 2.76172875 0.02981587 -0.94303433
H 2.55897962 -1.29088811 0.23630724
