9

S -0.49438654 -0.31241657 0.11886762
O -1.22955846 -1.48399595 -0.40035538
O -0.77441863 0.04651259 1.52438815
O 1.08608501 -0.92325513 0.23054439
C 2.07326938 -0.25025509 -0.54483940
O -0.40888878 0.83409869 -0.81295003
H 2.14297486 0.78790473 -0.22295848
H 3.03725567 -0.74228529 -0.40877722
H 1.79335049 -0.28109797 -1.59685265
