9

S -0.42437522 0.01160056 0.22460135
O -0.92739459 -0.59708553 -1.02610415
O -0.11780088 -0.94015477 1.31351840
O 1.11608819 0.56456384 -0.21956299
C 2.00013632 -0.45890201 -0.67198298
O -1.09378402 1.26176894 0.63921437
H 2.70999052 -0.03509012 -1.38334318
H 2.52455536 -0.88510389 0.18241496
H 1.43826833 -1.24638802 -1.17169277
