 xtb: 6.5.1 (b24c23e)
          11032212583D

  9  8  0     0  0            999 V2000
   -0.4414   -0.0226   -0.2902 S   0  0  0  0  0  0  0  0  0  0  0  0
   -1.1637    1.1624   -0.7022 O   0  0  0  0  0  0  0  0  0  0  0  0
   -0.9522   -1.2700   -0.8274 O   0  0  0  0  0  0  0  0  0  0  0  0
    1.0593    0.1689   -1.0265 O   0  0  0  0  0  0  0  0  0  0  0  0
    2.0282   -0.4464   -0.2538 C   0  0  0  0  0  0  0  0  0  0  0  0
   -0.1625   -0.0711    1.1363 O   0  0  0  0  0  0  0  0  0  0  0  0
    1.8190   -1.5207   -0.1673 H   0  0  0  0  0  0  0  0  0  0  0  0
    3.0011   -0.3014   -0.7370 H   0  0  0  0  0  0  0  0  0  0  0  0
    2.0381   -0.0239    0.7551 H   0  0  0  0  0  0  0  0  0  0  0  0
  1  2  2  0  0  0  0
  1  3  2  0  0  0  0
  1  4  1  0  0  0  0
  4  5  1  0  0  0  0
  1  6  2  0  0  0  0
  5  7  1  0  0  0  0
  5  8  1  0  0  0  0
  5  9  1  0  0  0  0
M  CHG  1   1  -1
M  END
