
 OpenBabel11032212483D

 11 10  0  0  0  0  0  0  0  0999 V2000
   -1.2718    0.3046    0.1528 C   0  0  0  0  0  0  0  0  0  0  0  0
   -0.2078   -0.6679   -0.2753 C   0  0  0  0  0  0  0  0  0  0  0  0
    1.3738    0.1041    0.0706 S   0  0  0  0  0  0  0  0  0  0  0  0
    1.3471    0.4728    1.5258 O   0  0  0  0  0  0  0  0  0  0  0  0
    1.3477    1.3951   -0.7273 O   0  0  0  0  0  0  0  0  0  0  0  0
    2.6475   -0.8536   -0.3504 O   0  5  0  0  0  0  0  0  0  0  0  0
   -0.8555    1.2291    0.6187 H   0  0  0  0  0  0  0  0  0  0  0  0
   -1.8822    0.6645   -0.7108 H   0  0  0  0  0  0  0  0  0  0  0  0
   -1.9172   -0.1933    0.9112 H   0  0  0  0  0  0  0  0  0  0  0  0
   -0.2899   -1.6585    0.1774 H   0  0  0  0  0  0  0  0  0  0  0  0
   -0.2919   -0.7969   -1.3928 H   0  0  0  0  0  0  0  0  0  0  0  0
  1  2  1  0  0  0  0
  1  7  1  0  0  0  0
  1  8  1  0  0  0  0
  1  9  1  0  0  0  0
  2  3  1  0  0  0  0
  2 10  1  0  0  0  0
  2 11  1  0  0  0  0
  3  4  2  0  0  0  0
  3  5  2  0  0  0  0
  3  6  1  0  0  0  0
M  CHG  1   6  -1
M  END
$$$$
