C2H5O3S
 OpenBabel11032212483D

 11 10  0  0  0  0  0  0  0  0999 V2000
   -0.0979   -0.6468   -0.0618 C   0  0  0  0  0  0  0  0  0  0  0  0
   -1.3258    0.2230    0.1254 C   0  0  0  0  0  0  0  0  0  0  0  0
    1.4174    0.2857   -0.0778 S   0  0  0  0  0  0  0  0  0  0  0  0
    1.4373    0.9296    1.2339 O   0  0  0  0  0  0  0  0  0  0  0  0
    2.4324   -0.7495   -0.2665 O   0  0  0  0  0  0  0  0  0  0  0  0
    1.2501    1.1917   -1.2123 O   0  5  0  0  0  0  0  0  0  0  0  0
   -0.0226   -1.3776    0.7498 H   0  0  0  0  0  0  0  0  0  0  0  0
   -0.1574   -1.1889   -1.0110 H   0  0  0  0  0  0  0  0  0  0  0  0
   -1.2848    0.7694    1.0728 H   0  0  0  0  0  0  0  0  0  0  0  0
   -1.4190    0.9574   -0.6808 H   0  0  0  0  0  0  0  0  0  0  0  0
   -2.2297   -0.3940    0.1284 H   0  0  0  0  0  0  0  0  0  0  0  0
  1  2  1  0  0  0  0
  1  3  1  0  0  0  0
  1  7  1  0  0  0  0
  1  8  1  0  0  0  0
  2  9  1  0  0  0  0
  2 10  1  0  0  0  0
  2 11  1  0  0  0  0
  3  4  2  0  0  0  0
  3  5  2  0  0  0  0
  3  6  1  0  0  0  0
M  CHG  1   6  -1
M  END
