C2H5O3S
APtclcactv11242113373D 0   0.00000     0.00000
 
 11 10  0  0  0  0  0  0  0  0999 V2000
   -1.1774   -0.8808   -0.0000 C   0  0  0  0  0  0  0  0  0  0  0  0
   -2.3233    0.1329   -0.0000 C   0  0  0  0  0  0  0  0  0  0  0  0
    0.4087   -0.0005    0.0000 S   0  0  0  0  0  0  0  0  0  0  0  0
    1.4870   -0.9768   -0.0000 O   0  0  0  0  0  0  0  0  0  0  0  0
    0.4846    0.8291   -1.1925 O   0  0  0  0  0  0  0  0  0  0  0  0
    0.4846    0.8291    1.1925 O   0  5  0  0  0  0  0  0  0  0  0  0
   -1.2457   -1.5064    0.8900 H   0  0  0  0  0  0  0  0  0  0  0  0
   -1.2457   -1.5064   -0.8900 H   0  0  0  0  0  0  0  0  0  0  0  0
   -2.2550    0.7585    0.8900 H   0  0  0  0  0  0  0  0  0  0  0  0
   -2.2550    0.7585   -0.8900 H   0  0  0  0  0  0  0  0  0  0  0  0
   -3.2764   -0.3961   -0.0000 H   0  0  0  0  0  0  0  0  0  0  0  0
  1  2  1  0  0  0  0
  1  3  1  0  0  0  0
  3  4  2  0  0  0  0
  3  5  2  0  0  0  0
  3  6  1  0  0  0  0
  1  7  1  0  0  0  0
  1  8  1  0  0  0  0
  2  9  1  0  0  0  0
  2 10  1  0  0  0  0
  2 11  1  0  0  0  0
M  CHG  1   6  -1
M  END
$$$$


