10

N -0.56746061 1.19255887 -0.19930365
C 0.03461416 0.00264624 -0.07314291
N 1.22972652 -0.07514671 0.53230246
H 1.69689677 0.74367056 0.90079681
H 1.71937458 -0.95298013 0.64952635
N -0.64985453 -1.11519287 -0.35981108
H -0.67383552 1.82145019 0.58618984
H -0.93816297 1.50562273 -1.08723528
H -1.61278650 -1.08640444 -0.67011865
H -0.23847291 -2.03621544 -0.27925191
