10

N -0.58208993 1.19831019 -0.17288852
C 0.00000450 -0.00000060 -0.00000652
N 1.30664077 -0.07457576 0.30299014
H 1.88312061 0.75053786 0.40875728
H 1.77821596 -0.95950767 0.44025526
N -0.72454106 -1.12373289 -0.13011665
H -1.56346115 1.29257069 -0.40169851
H -0.06761645 2.06521212 -0.08274606
H -1.71058838 -1.10570107 -0.35752197
H -0.31964688 -2.04310888 -0.00707044
