10

N -0.58541826 1.19792177 -0.16600840
C -0.00019180 0.00015909 0.00001075
N 1.18673525 -0.08689709 0.62314452
H 1.66888397 0.72811276 0.98027319
H 1.65655315 -0.97193292 0.76577500
N -0.60140971 -1.11084766 -0.45714258
H -0.16157422 2.05517480 0.16533340
H -1.47863668 1.30148890 -0.63048612
H -1.49514047 -1.08401546 -0.93129456
H -0.18976122 -2.02915617 -0.34965518
