10

N -0.578200638593 1.19028762133 -0.171712115026
C 1.543813e-06 1.176029e-06 1.888816e-06
N 1.297888051046 -0.074075258553 0.300929728943
H 1.867607005741 0.755237311761 0.405027201032
H 1.762219844216 -0.962412032848 0.436664378381
N -0.719691649863 -1.116213734446 -0.129215714284
H -1.559781329947 1.276410038613 -0.400308105547
H -0.057259327984 2.05247947031 -0.079967930595
H -1.704946927014 -1.090060401751 -0.356722569638
H -0.307798770867 -2.031649330409 -0.004741857608
