10

N -0.57878639 1.19124138 -0.15494200
C -0.00433894 -0.00115420 0.04727582
N 1.32787048 -0.07693887 0.18316032
H 1.91621945 0.74541024 0.13707967
H 1.80605813 -0.95523621 0.33738458
N -0.75136218 -1.11365959 -0.01124164
H -1.04587848 1.41406046 -1.02446665
H -0.56551996 1.91138538 0.55571846
H -1.74420699 -1.07983350 -0.20498781
H -0.36001712 -2.03526808 0.13497327
