10

N -0.57558034 1.18804758 -0.17499507
C 0.00267664 -0.00551304 0.00080706
N 1.33477876 -0.08055140 0.13289616
H 1.91975399 0.74495391 0.10330457
H 1.81604338 -0.96032649 0.26760767
N -0.75884146 -1.10821867 0.04219325
H -0.72363072 1.57129149 -1.09955416
H -0.88341383 1.74581763 0.61097944
H -1.76524751 -1.06385308 -0.05634082
H -0.36649991 -2.03164194 0.17305390
