10

N -0.57089715 1.19012309 -0.18864633
C 0.01680430 -0.00413788 -0.04440739
N 1.27335802 -0.06912543 0.42009768
H 1.79438992 0.76287394 0.66669557
H 1.75799668 -0.94841926 0.54562122
N -0.69701514 -1.12138017 -0.24779560
H -1.36725838 1.46050659 0.37392729
H -0.23842742 1.86413407 -0.86603800
H -1.67433821 -1.08994462 -0.50925865
H -0.29457362 -2.04462532 -0.15024276
