CH6N3
     RDKit          3D

 10  9  0  0  0  0  0  0  0  0999 V2000
   -0.4082    1.3254    0.1036 N   0  0  0  0  0  0  0  0  0  0  0  0
    0.0230   -0.0312   -0.0007 C   0  0  0  0  0  0  0  0  0  0  0  0
    1.2466   -0.2630    0.2883 N   0  0  0  0  0  4  0  0  0  0  0  0
    1.5829   -1.2392    0.2202 H   0  0  0  0  0  0  0  0  0  0  0  0
    1.9246    0.4518    0.5848 H   0  0  0  0  0  0  0  0  0  0  0  0
   -0.8642   -1.0464   -0.4016 N   0  0  0  0  0  0  0  0  0  0  0  0
   -0.2316    1.8025    1.0137 H   0  0  0  0  0  0  0  0  0  0  0  0
   -0.8737    1.8041   -0.6931 H   0  0  0  0  0  0  0  0  0  0  0  0
   -1.6841   -0.7713   -0.9602 H   0  0  0  0  0  0  0  0  0  0  0  0
   -0.7154   -2.0327   -0.1550 H   0  0  0  0  0  0  0  0  0  0  0  0
  1  2  1  0
  1  7  1  0
  1  8  1  0
  2  3  2  0
  2  6  1  0
  3  4  1  0
  3  5  1  0
  6  9  1  0
  6 10  1  0
M  CHG  1   3   1
M  END
