9
-1 1 CH3O4S
S                    -0.439487730444     0.063625693288     0.077951484334
O                    -0.714222038065     0.075859689951    -1.377445157450
O                    -0.541134250953    -1.275892202577     0.701782683153
O                     1.211732745289     0.430021667594     0.178695017860
C                     2.016560060974    -0.521745162489    -0.507074865878
O                    -1.013299451468     1.177560051646     0.849912317359
H                     1.763761095883    -0.553012780276    -1.572014131943
H                     3.053906700014    -0.198954807819    -0.383574851252
H                     1.887866515965    -1.522254557852    -0.081168256353
