CH3O4S
     RDKit          3D

  9  8  0  0  0  0  0  0  0  0999 V2000
   -1.2248   -0.0847    0.1540 S   0  0  1  0  0  6  0  0  0  0  0  0
   -1.0701   -0.5024   -1.2646 O   0  0  0  0  0  0  0  0  0  0  0  0
   -1.7871   -1.1831    1.0236 O   0  0  0  0  0  0  0  0  0  0  0  0
    0.2667    0.3518    0.8072 O   0  0  0  0  0  0  0  0  0  0  0  0
    1.3087    0.1014   -0.0846 C   0  0  1  0  0  0  0  0  0  0  0  0
   -2.2374    1.2510    0.3248 O   0  0  0  0  0  1  0  0  0  0  0  0
    1.8039    1.0528   -0.3996 H   0  0  0  0  0  0  0  0  0  0  0  0
    2.0112   -0.5834    0.4302 H   0  0  0  0  0  0  0  0  0  0  0  0
    0.9290   -0.4033   -0.9912 H   0  0  0  0  0  0  0  0  0  0  0  0
  1  2  2  0
  1  3  2  0
  1  4  1  0
  1  6  1  6
  4  5  1  0
  5  7  1  6
  5  8  1  0
  5  9  1  0
M  CHG  1   6  -1
M  END
