C2H3O2
     RDKit          3D

  7  6  0  0  0  0  0  0  0  0999 V2000
    0.4473    0.0434    0.5006 C   0  0  1  0  0  0  0  0  0  0  0  0
   -0.5519   -0.0441   -0.5868 C   0  0  0  0  0  0  0  0  0  0  0  0
   -1.0396   -1.1523   -0.9387 O   0  0  0  0  0  0  0  0  0  0  0  0
   -0.9952    1.0756   -1.2637 O   0  0  0  0  0  1  0  0  0  0  0  0
    0.1402    0.6811    1.3355 H   0  0  0  0  0  0  0  0  0  0  0  0
    0.5906   -0.9842    0.9286 H   0  0  0  0  0  0  0  0  0  0  0  0
    1.4087    0.3804    0.0245 H   0  0  0  0  0  0  0  0  0  0  0  0
  1  2  1  0
  1  5  1  1
  1  6  1  0
  1  7  1  0
  2  3  2  0
  2  4  1  0
M  CHG  1   4  -1
M  END
