
     RDKit          3D

  7  6  0  0  0  0  0  0  0  0999 V2000
   -0.6371    0.0743    0.1339 C   0  0  0  0  0  0  0  0  0  0  0  0
    0.7895   -0.0576   -0.2049 C   0  0  0  0  0  0  0  0  0  0  0  0
    1.3486    0.8582   -0.8366 O   0  0  0  0  0  0  0  0  0  0  0  0
    1.5234   -1.1612    0.1549 O   0  0  0  0  0  1  0  0  0  0  0  0
   -1.0276    1.0749   -0.1387 H   0  0  0  0  0  0  0  0  0  0  0  0
   -0.7322   -0.0629    1.2278 H   0  0  0  0  0  0  0  0  0  0  0  0
   -1.2646   -0.7256   -0.3364 H   0  0  0  0  0  0  0  0  0  0  0  0
  1  2  1  0
  2  3  2  0
  2  4  1  0
  1  5  1  0
  1  6  1  0
  1  7  1  0
M  CHG  1   4  -1
M  END
