C3H5N2
     RDKit          3D

 10 10  0  0  0  0  0  0  0  0999 V2000
    0.5907   -0.9572    0.0161 N   0  0  0  0  0  0  0  0  0  0  0  0
    1.0828    0.2489    0.3154 C   0  0  0  0  0  0  0  0  0  0  0  0
    0.0644    1.1078    0.2071 N   0  0  0  0  0  4  0  0  0  0  0  0
    0.1395    2.1092    0.3772 H   0  0  0  0  0  0  0  0  0  0  0  0
   -1.0878    0.4479   -0.1640 C   0  0  0  0  0  0  0  0  0  0  0  0
   -0.7517   -0.8708   -0.2859 C   0  0  0  0  0  0  0  0  0  0  0  0
    1.1395   -1.8151    0.0144 H   0  0  0  0  0  0  0  0  0  0  0  0
    2.1045    0.4838    0.5912 H   0  0  0  0  0  0  0  0  0  0  0  0
   -1.9950    1.0124   -0.2911 H   0  0  0  0  0  0  0  0  0  0  0  0
   -1.2868   -1.7669   -0.5481 H   0  0  0  0  0  0  0  0  0  0  0  0
  1  2  1  0
  1  6  1  0
  1  7  1  0
  2  3  2  0
  2  8  1  0
  3  4  1  0
  3  5  1  0
  5  6  2  0
  5  9  1  0
  6 10  1  0
M  CHG  1   3   1
M  END
