C3H5N2
     RDKit          3D

 10 10  0  0  0  0  0  0  0  0999 V2000
    0.5932   -0.9849    0.0278 N   0  0  0  0  0  0  0  0  0  0  0  0
    1.1050    0.2790   -0.0129 C   0  0  0  0  0  0  0  0  0  0  0  0
    0.0752    1.1546   -0.0356 N   0  0  0  0  0  4  0  0  0  0  0  0
    0.1492    2.1942   -0.0677 H   0  0  0  0  0  0  0  0  0  0  0  0
   -1.0711    0.4135   -0.0084 C   0  0  0  0  0  0  0  0  0  0  0  0
   -0.7414   -0.9156    0.0309 C   0  0  0  0  0  0  0  0  0  0  0  0
    1.2072   -1.8382    0.0515 H   0  0  0  0  0  0  0  0  0  0  0  0
    2.1523    0.5432   -0.0251 H   0  0  0  0  0  0  0  0  0  0  0  0
   -2.0607    0.8860   -0.0190 H   0  0  0  0  0  0  0  0  0  0  0  0
   -1.4090   -1.7318    0.0585 H   0  0  0  0  0  0  0  0  0  0  0  0
  1  2  1  0
  1  6  1  0
  1  7  1  0
  2  3  2  0
  2  8  1  0
  3  4  1  0
  3  5  1  0
  5  6  2  0
  5  9  1  0
  6 10  1  0
M  CHG  1   3   1
M  END
