
     RDKit          3D

 10 10  0  0  0  0  0  0  0  0999 V2000
   -0.9254   -0.7150    0.0159 C   0  0  0  0  0  0  0  0  0  0  0  0
   -0.9262    0.6719   -0.0177 C   0  0  0  0  0  0  0  0  0  0  0  0
    0.3415    1.1143   -0.0265 N   0  0  0  0  0  4  0  0  0  0  0  0
    1.1381    0.0403    0.0008 C   0  0  0  0  0  0  0  0  0  0  0  0
    0.3695   -1.0873    0.0269 N   0  0  0  0  0  0  0  0  0  0  0  0
   -1.7783   -1.3753    0.0306 H   0  0  0  0  0  0  0  0  0  0  0  0
   -1.8226    1.2674   -0.0335 H   0  0  0  0  0  0  0  0  0  0  0  0
    0.6165    2.1126   -0.0502 H   0  0  0  0  0  0  0  0  0  0  0  0
    2.2267    0.0443    0.0024 H   0  0  0  0  0  0  0  0  0  0  0  0
    0.7601   -2.0733    0.0514 H   0  0  0  0  0  0  0  0  0  0  0  0
  1  2  2  0
  2  3  1  0
  3  4  2  0
  4  5  1  0
  5  1  1  0
  1  6  1  0
  2  7  1  0
  3  8  1  0
  4  9  1  0
  5 10  1  0
M  CHG  1   3   1
M  END
